<?xml version="1.0" encoding="UTF-8"?>

<!-- generated on 2026-02-27 06:11:04 by Eclipse SUMO netconvert Version 1.23.1
<netconvertConfiguration xmlns:xsi="http://www.w3.org/2001/XMLSchema-instance" xsi:noNamespaceSchemaLocation="http://sumo.dlr.de/xsd/netconvertConfiguration.xsd">

    <input>
        <sumo-net-file value="/sim_config/maps/shinagawa_odaiba.net.xml"/>
    </input>

    <output>
        <output-file value="/sim_config/maps/shinagawa_odaiba.net.xml"/>
    </output>

    <processing>
        <geometry.min-radius.fix.railways value="false"/>
        <geometry.avoid-overlap value="false"/>
        <geometry.max-grade.fix value="false"/>
        <offset.disable-normalization value="true"/>
        <lefthand value="0"/>
    </processing>

    <junctions>
        <no-internal-links value="false"/>
        <no-turnarounds value="true"/>
        <junctions.corner-detail value="5"/>
        <junctions.limit-turn-speed value="5.50"/>
        <rectangular-lane-cut value="0"/>
    </junctions>

    <pedestrian>
        <walkingareas value="0"/>
    </pedestrian>

</netconvertConfiguration>
-->

<net version="1.20" junctionCornerDetail="5" limitTurnSpeed="5.50" avoidOverlap="0" xmlns:xsi="http://www.w3.org/2001/XMLSchema-instance" xsi:noNamespaceSchemaLocation="http://sumo.dlr.de/xsd/net_file.xsd">

    <location netOffset="0.00,0.00" convBoundary="85982.92,41753.78,90993.78,45261.48" origBoundary="85982.92,41753.78,90993.78,45261.48" projParameter="!"/>

    <edge id=":jn_0_0" function="internal">
        <lane id=":jn_0_0_0" index="0" speed="16.67" length="0.29" shape="90552.40,44081.75 90552.16,44081.59"/>
    </edge>
    <edge id=":jn_1_0" function="internal">
        <lane id=":jn_1_0_0" index="0" speed="16.67" length="0.29" shape="90495.65,44045.92 90495.41,44045.77"/>
    </edge>
    <edge id=":jn_100_0" function="internal">
        <lane id=":jn_100_0_0" index="0" speed="16.67" length="0.29" shape="90959.78,43853.30 90959.54,43853.14"/>
    </edge>
    <edge id=":jn_1008_0" function="internal">
        <lane id=":jn_1008_0_0" index="0" speed="7.97" length="6.51" shape="86335.47,43107.06 86334.22,43105.49 86332.95,43104.34 86331.68,43103.60 86330.39,43103.27"/>
    </edge>
    <edge id=":jn_1008_1" function="internal">
        <lane id=":jn_1008_1_0" index="0" speed="8.14" length="2.37" shape="86336.31,43101.95 86335.23,43102.67 86334.22,43103.01"/>
    </edge>
    <edge id=":jn_1008_2" function="internal">
        <lane id=":jn_1008_2_0" index="0" speed="8.14" length="3.86" shape="86334.22,43103.01 86333.88,43103.13 86332.27,43103.33 86330.39,43103.27"/>
    </edge>
    <edge id=":jn_101_0" function="internal">
        <lane id=":jn_101_0_0" index="0" speed="16.67" length="7.81" shape="90938.08,43839.18 90931.52,43834.96"/>
    </edge>
    <edge id=":jn_101_1" function="internal">
        <lane id=":jn_101_1_0" index="0" speed="9.73" length="7.71" shape="90938.08,43839.18 90936.40,43837.79 90935.65,43836.44 90935.30,43834.80 90934.82,43832.54"/>
    </edge>
    <edge id=":jn_1011_0" function="internal">
        <lane id=":jn_1011_0_0" index="0" speed="13.89" length="0.30" shape="89762.80,43412.01 89762.63,43412.26"/>
    </edge>
    <edge id=":jn_102_0" function="internal">
        <lane id=":jn_102_0_0" index="0" speed="16.67" length="0.27" shape="90954.02,43862.26 90953.79,43862.12"/>
    </edge>
    <edge id=":jn_1022_0" function="internal">
        <lane id=":jn_1022_0_0" index="0" speed="6.60" length="9.34" shape="89364.63,42879.99 89365.11,42877.55 89364.64,42875.53 89363.23,42873.91 89360.87,42872.71"/>
    </edge>
    <edge id=":jn_1022_1" function="internal">
        <lane id=":jn_1022_1_0" index="0" speed="6.59" length="9.29" shape="89364.63,42879.99 89365.11,42877.55 89364.66,42875.53 89363.28,42873.91 89360.96,42872.71"/>
    </edge>
    <edge id=":jn_1022_2" function="internal">
        <lane id=":jn_1022_2_0" index="0" speed="13.45" length="12.18" shape="89364.63,42879.99 89365.63,42876.82 89366.08,42874.07 89365.94,42871.31 89365.17,42868.10"/>
    </edge>
    <edge id=":jn_1023_0" function="internal">
        <lane id=":jn_1023_0_0" index="0" speed="7.34" length="11.72" shape="89360.77,42872.64 89357.03,42871.67 89354.08,42871.73 89351.93,42872.81 89350.58,42874.91"/>
    </edge>
    <edge id=":jn_1023_1" function="internal">
        <lane id=":jn_1023_1_0" index="0" speed="9.87" length="13.89" shape="89361.73,42867.82 89357.65,42868.74 89354.43,42870.23 89352.07,42872.28 89350.58,42874.91"/>
    </edge>
    <edge id=":jn_1023_2" function="internal">
        <lane id=":jn_1023_2_0" index="0" speed="16.67" length="17.20" shape="89356.34,42858.71 89350.58,42874.91"/>
    </edge>
    <edge id=":jn_1023_3" function="internal">
        <lane id=":jn_1023_3_0" index="0" speed="16.67" length="16.68" shape="89351.07,42858.41 89351.70,42862.39 89351.88,42866.73 89351.53,42871.04 89350.58,42874.91"/>
    </edge>
    <edge id=":jn_1028_0" function="internal">
        <lane id=":jn_1028_0_0" index="0" speed="13.89" length="0.30" shape="89797.89,43363.38 89797.73,43363.63"/>
    </edge>
    <edge id=":jn_1029_0" function="internal">
        <lane id=":jn_1029_0_0" index="0" speed="13.89" length="0.10" shape="89793.78,43369.81 89793.78,43369.81"/>
    </edge>
    <edge id=":jn_103_0" function="internal">
        <lane id=":jn_103_0_0" index="0" speed="4.41" length="1.04" shape="90931.86,43847.94 90931.60,43847.78 90931.40,43847.70 90931.19,43847.67 90930.88,43847.69"/>
    </edge>
    <edge id=":jn_1030_0" function="internal">
        <lane id=":jn_1030_0_0" index="0" speed="8.33" length="0.26" shape="89459.84,43216.59 89459.63,43216.45"/>
    </edge>
    <edge id=":jn_1035_0" function="internal">
        <lane id=":jn_1035_0_0" index="0" speed="8.33" length="0.30" shape="89476.27,43227.35 89476.02,43227.19"/>
    </edge>
    <edge id=":jn_1038_0" function="internal">
        <lane id=":jn_1038_0_0" index="0" speed="8.33" length="0.30" shape="89480.35,43230.08 89480.10,43229.91"/>
    </edge>
    <edge id=":jn_104_0" function="internal">
        <lane id=":jn_104_0_0" index="0" speed="16.67" length="0.10" shape="90955.63,43859.30 90955.71,43859.35"/>
    </edge>
    <edge id=":jn_1041_0" function="internal">
        <lane id=":jn_1041_0_0" index="0" speed="8.33" length="0.29" shape="89489.85,43236.41 89489.61,43236.24"/>
    </edge>
    <edge id=":jn_1044_0" function="internal">
        <lane id=":jn_1044_0_0" index="0" speed="4.05" length="1.58" shape="89493.68,43239.87 89493.64,43239.47 89493.51,43239.11 89493.29,43238.80 89492.98,43238.53"/>
    </edge>
    <edge id=":jn_1047_0" function="internal">
        <lane id=":jn_1047_0_0" index="0" speed="4.15" length="1.33" shape="89493.03,43250.98 89493.26,43250.73 89493.43,43250.45 89493.53,43250.14 89493.57,43249.80"/>
    </edge>
    <edge id=":jn_105_0" function="internal">
        <lane id=":jn_105_0_0" index="0" speed="16.67" length="0.30" shape="90932.94,43844.58 90932.69,43844.41"/>
    </edge>
    <edge id=":jn_106_0" function="internal">
        <lane id=":jn_106_0_0" index="0" speed="16.67" length="0.30" shape="90957.64,43856.62 90957.39,43856.46"/>
    </edge>
    <edge id=":jn_1069_0" function="internal">
        <lane id=":jn_1069_0_0" index="0" speed="13.89" length="0.30" shape="89820.41,43332.57 89820.58,43332.31"/>
    </edge>
    <edge id=":jn_107_0" function="internal">
        <lane id=":jn_107_0_0" index="0" speed="16.67" length="0.30" shape="90934.77,43841.75 90934.52,43841.59"/>
    </edge>
    <edge id=":jn_1076_0" function="internal">
        <lane id=":jn_1076_0_0" index="0" speed="11.11" length="0.10" shape="88651.09,43030.88 88651.13,43030.81"/>
    </edge>
    <edge id=":jn_1077_0" function="internal">
        <lane id=":jn_1077_0_0" index="0" speed="11.11" length="0.68" shape="88639.33,43052.12 88639.24,43052.30 88639.18,43052.43 88639.16,43052.56 88639.14,43052.76"/>
    </edge>
    <edge id=":jn_1078_0" function="internal">
        <lane id=":jn_1078_0_0" index="0" speed="16.67" length="0.10" shape="89449.21,42630.57 89449.18,42630.67"/>
    </edge>
    <edge id=":jn_1081_0" function="internal">
        <lane id=":jn_1081_0_0" index="0" speed="11.11" length="3.04" shape="88649.21,43027.96 88647.67,43030.57"/>
    </edge>
    <edge id=":jn_1081_1" function="internal">
        <lane id=":jn_1081_1_0" index="0" speed="11.11" length="3.05" shape="88649.21,43027.96 88647.50,43030.48"/>
    </edge>
    <edge id=":jn_1082_0" function="internal">
        <lane id=":jn_1082_0_0" index="0" speed="11.11" length="0.62" shape="88635.71,43051.73 88635.62,43051.89 88635.57,43052.01 88635.54,43052.13 88635.51,43052.32"/>
    </edge>
    <edge id=":jn_1083_0" function="internal">
        <lane id=":jn_1083_0_0" index="0" speed="13.89" length="0.10" shape="89177.04,43418.73 89177.04,43418.73"/>
    </edge>
    <edge id=":jn_1084_0" function="internal">
        <lane id=":jn_1084_0_0" index="0" speed="13.89" length="0.10" shape="89156.10,43405.19 89156.10,43405.19"/>
    </edge>
    <edge id=":jn_1085_0" function="internal">
        <lane id=":jn_1085_0_0" index="0" speed="13.89" length="0.30" shape="89722.98,43484.57 89723.14,43484.32"/>
    </edge>
    <edge id=":jn_1088_0" function="internal">
        <lane id=":jn_1088_0_0" index="0" speed="11.11" length="0.71" shape="88632.33,43050.92 88632.21,43051.09 88632.14,43051.21 88632.09,43051.35 88632.05,43051.56"/>
    </edge>
    <edge id=":jn_1089_0" function="internal">
        <lane id=":jn_1089_0_0" index="0" speed="4.15" length="1.33" shape="89782.60,42426.71 89782.90,42426.87 89783.21,42426.95 89783.54,42426.97 89783.88,42426.91"/>
    </edge>
    <edge id=":jn_1090_0" function="internal">
        <lane id=":jn_1090_0_0" index="0" speed="9.72" length="7.78" shape="89809.56,42420.06 89811.84,42419.58 89813.49,42419.23 89814.86,42418.47 89816.25,42416.77"/>
    </edge>
    <edge id=":jn_1090_1" function="internal">
        <lane id=":jn_1090_1_0" index="0" speed="16.67" length="7.87" shape="89811.96,42423.37 89816.25,42416.77"/>
    </edge>
    <edge id=":jn_1091_0" function="internal">
        <lane id=":jn_1091_0_0" index="0" speed="16.67" length="0.10" shape="90854.44,43892.87 90854.44,43892.87"/>
    </edge>
    <edge id=":jn_1092_0" function="internal">
        <lane id=":jn_1092_0_0" index="0" speed="16.67" length="8.23" shape="90849.69,43900.34 90845.26,43907.28"/>
    </edge>
    <edge id=":jn_1092_1" function="internal">
        <lane id=":jn_1092_1_0" index="0" speed="7.69" length="7.56" shape="90849.69,43900.34 90848.63,43901.49 90847.15,43902.30 90845.24,43902.76 90842.90,43902.89"/>
    </edge>
    <edge id=":jn_1095_0" function="internal">
        <lane id=":jn_1095_0_0" index="0" speed="16.67" length="0.10" shape="89356.80,42901.88 89356.82,42901.82"/>
    </edge>
    <edge id=":jn_1096_0" function="internal">
        <lane id=":jn_1096_0_0" index="0" speed="4.15" length="1.34" shape="87292.06,44332.90 87291.75,44333.06 87291.50,44333.27 87291.30,44333.53 87291.15,44333.83"/>
    </edge>
    <edge id=":jn_1097_0" function="internal">
        <lane id=":jn_1097_0_0" index="0" speed="4.03" length="1.65" shape="87250.43,44444.41 87250.32,44444.83 87250.33,44445.22 87250.45,44445.60 87250.68,44445.97"/>
    </edge>
    <edge id=":jn_1098_0" function="internal">
        <lane id=":jn_1098_0_0" index="0" speed="4.31" length="1.15" shape="89781.56,42431.03 89781.84,42431.22 89782.01,42431.38 89782.13,42431.60 89782.23,42431.92"/>
    </edge>
    <edge id=":jn_1099_0" function="internal">
        <lane id=":jn_1099_0_0" index="0" speed="16.67" length="7.90" shape="89792.61,42452.78 89788.30,42459.40"/>
    </edge>
    <edge id=":jn_1099_1" function="internal">
        <lane id=":jn_1099_1_0" index="0" speed="8.51" length="7.45" shape="89788.20,42452.14 89788.77,42454.50 89788.98,42456.50 89788.82,42458.13 89788.30,42459.40"/>
    </edge>
    <edge id=":jn_1102_0" function="internal">
        <lane id=":jn_1102_0_0" index="0" speed="16.67" length="0.30" shape="89367.32,42905.71 89367.42,42905.43"/>
    </edge>
    <edge id=":jn_1103_0" function="internal">
        <lane id=":jn_1103_0_0" index="0" speed="13.89" length="0.30" shape="89725.89,43486.40 89726.05,43486.15"/>
    </edge>
    <edge id=":jn_1106_0" function="internal">
        <lane id=":jn_1106_0_0" index="0" speed="16.67" length="0.30" shape="89325.02,42968.06 89324.93,42968.34"/>
    </edge>
    <edge id=":jn_1107_0" function="internal">
        <lane id=":jn_1107_0_0" index="0" speed="16.67" length="0.10" shape="89296.51,43050.52 89296.48,43050.61"/>
    </edge>
    <edge id=":jn_1110_0" function="internal">
        <lane id=":jn_1110_0_0" index="0" speed="16.67" length="0.17" shape="89322.39,42966.37 89322.37,42966.41 89322.36,42966.44 89322.35,42966.47 89322.33,42966.52"/>
    </edge>
    <edge id=":jn_1111_0" function="internal">
        <lane id=":jn_1111_0_0" index="0" speed="16.67" length="0.10" shape="89293.39,43049.22 89293.35,43049.30"/>
    </edge>
    <edge id=":jn_1114_0" function="internal">
        <lane id=":jn_1114_0_0" index="0" speed="16.67" length="0.10" shape="89287.19,43046.96 89287.16,43047.03"/>
    </edge>
    <edge id=":jn_1115_0" function="internal">
        <lane id=":jn_1115_0_0" index="0" speed="13.89" length="0.30" shape="89690.43,43534.92 89690.59,43534.67"/>
    </edge>
    <edge id=":jn_1118_0" function="internal">
        <lane id=":jn_1118_0_0" index="0" speed="9.72" length="0.69" shape="88623.89,43082.73 88623.79,43082.91 88623.72,43083.03 88623.62,43083.13 88623.47,43083.26"/>
    </edge>
    <edge id=":jn_1119_0" function="internal">
        <lane id=":jn_1119_0_0" index="0" speed="3.96" length="1.96" shape="88617.89,43087.92 88617.54,43088.30 88617.35,43088.72 88617.30,43089.18 88617.41,43089.68"/>
    </edge>
    <edge id=":jn_112_0" function="internal">
        <lane id=":jn_112_0_0" index="0" speed="16.67" length="0.24" shape="90937.57,43766.46 90937.55,43766.53 90937.53,43766.57 90937.50,43766.62 90937.47,43766.68"/>
    </edge>
    <edge id=":jn_1122_0" function="internal">
        <lane id=":jn_1122_0_0" index="0" speed="11.11" length="0.43" shape="88657.18,43096.62 88657.27,43096.72 88657.33,43096.78 88657.40,43096.83 88657.51,43096.91"/>
    </edge>
    <edge id=":jn_1124_0" function="internal">
        <lane id=":jn_1124_0_0" index="0" speed="11.11" length="0.54" shape="88637.74,43080.62 88637.80,43080.77 88637.85,43080.87 88637.92,43080.96 88638.02,43081.08"/>
    </edge>
    <edge id=":jn_1125_0" function="internal">
        <lane id=":jn_1125_0_0" index="0" speed="11.11" length="20.55" shape="88642.52,43086.20 88645.49,43089.76 88649.13,43094.14 88652.93,43098.31 88656.42,43101.27"/>
    </edge>
    <edge id=":jn_1125_1" function="internal">
        <lane id=":jn_1125_1_0" index="0" speed="11.11" length="20.57" shape="88640.14,43088.71 88643.75,43091.60 88648.17,43095.14 88652.65,43098.61 88656.42,43101.27"/>
    </edge>
    <edge id=":jn_1128_0" function="internal">
        <lane id=":jn_1128_0_0" index="0" speed="4.32" length="1.14" shape="88633.28,43083.79 88633.61,43083.79 88633.85,43083.83 88634.06,43083.93 88634.32,43084.13"/>
    </edge>
    <edge id=":jn_1131_0" function="internal">
        <lane id=":jn_1131_0_0" index="0" speed="16.67" length="2.84" shape="89256.02,43126.25 89254.53,43128.67"/>
    </edge>
    <edge id=":jn_1131_1" function="internal">
        <lane id=":jn_1131_1_0" index="0" speed="16.67" length="2.85" shape="89256.02,43126.25 89255.59,43126.98 89255.28,43127.47 89254.95,43127.94 89254.45,43128.62"/>
    </edge>
    <edge id=":jn_1132_0" function="internal">
        <lane id=":jn_1132_0_0" index="0" speed="16.67" length="0.10" shape="89223.16,43171.06 89223.21,43170.98"/>
    </edge>
    <edge id=":jn_1133_0" function="internal">
        <lane id=":jn_1133_0_0" index="0" speed="13.89" length="0.30" shape="89693.30,43536.70 89693.46,43536.44"/>
    </edge>
    <edge id=":jn_1136_0" function="internal">
        <lane id=":jn_1136_0_0" index="0" speed="13.89" length="2.99" shape="89022.35,43333.41 89024.89,43334.99"/>
    </edge>
    <edge id=":jn_1136_1" function="internal">
        <lane id=":jn_1136_1_0" index="0" speed="13.89" length="2.99" shape="89022.35,43333.41 89024.84,43335.09"/>
    </edge>
    <edge id=":jn_1137_0" function="internal">
        <lane id=":jn_1137_0_0" index="0" speed="13.89" length="0.24" shape="89058.60,43358.63 89058.81,43358.77"/>
    </edge>
    <edge id=":jn_114_0" function="internal">
        <lane id=":jn_114_0_0" index="0" speed="16.67" length="0.27" shape="90934.23,43765.04 90934.20,43765.12 90934.18,43765.17 90934.16,43765.22 90934.12,43765.29"/>
    </edge>
    <edge id=":jn_1140_0" function="internal">
        <lane id=":jn_1140_0_0" index="0" speed="4.02" length="1.67" shape="89285.71,43076.90 89285.59,43077.32 89285.59,43077.72 89285.70,43078.11 89285.92,43078.48"/>
    </edge>
    <edge id=":jn_1143_0" function="internal">
        <lane id=":jn_1143_0_0" index="0" speed="16.67" length="0.10" shape="89281.79,43077.19 89281.75,43077.29"/>
    </edge>
    <edge id=":jn_1146_0" function="internal">
        <lane id=":jn_1146_0_0" index="0" speed="16.67" length="0.10" shape="89217.64,43167.50 89217.70,43167.42"/>
    </edge>
    <edge id=":jn_1147_0" function="internal">
        <lane id=":jn_1147_0_0" index="0" speed="4.18" length="1.28" shape="89201.19,43192.82 89200.98,43193.07 89200.74,43193.27 89200.47,43193.42 89200.15,43193.51"/>
    </edge>
    <edge id=":jn_1148_0" function="internal">
        <lane id=":jn_1148_0_0" index="0" speed="13.89" length="8.60" shape="87538.54,45039.38 87538.26,45030.78"/>
    </edge>
    <edge id=":jn_1148_1" function="internal">
        <lane id=":jn_1148_1_0" index="0" speed="7.53" length="7.80" shape="87533.74,45036.68 87535.73,45035.36 87537.15,45033.93 87538.00,45032.41 87538.26,45030.78"/>
    </edge>
    <edge id=":jn_1148_2" function="internal">
        <lane id=":jn_1148_2_0" index="0" speed="7.87" length="7.90" shape="87533.94,45037.00 87535.85,45035.57 87537.21,45034.05 87538.01,45032.45 87538.26,45030.78"/>
    </edge>
    <edge id=":jn_115_0" function="internal">
        <lane id=":jn_115_0_0" index="0" speed="9.72" length="0.10" shape="90919.60,43798.13 90919.56,43798.20"/>
    </edge>
    <edge id=":jn_1151_0" function="internal">
        <lane id=":jn_1151_0_0" index="0" speed="13.89" length="0.30" shape="89566.21,43748.63 89566.35,43748.37"/>
    </edge>
    <edge id=":jn_1152_0" function="internal">
        <lane id=":jn_1152_0_0" index="0" speed="13.89" length="0.27" shape="89600.12,43687.44 89600.25,43687.20"/>
    </edge>
    <edge id=":jn_1155_0" function="internal">
        <lane id=":jn_1155_0_0" index="0" speed="12.50" length="0.30" shape="88685.82,42985.41 88685.98,42985.16"/>
    </edge>
    <edge id=":jn_1156_0" function="internal">
        <lane id=":jn_1156_0_0" index="0" speed="13.89" length="0.29" shape="88702.24,42959.93 88702.39,42959.69"/>
    </edge>
    <edge id=":jn_1157_0" function="internal">
        <lane id=":jn_1157_0_0" index="0" speed="13.89" length="0.30" shape="86416.21,44047.11 86416.29,44047.40"/>
    </edge>
    <edge id=":jn_1158_0" function="internal">
        <lane id=":jn_1158_0_0" index="0" speed="13.89" length="0.29" shape="86433.11,44110.16 86433.18,44110.44"/>
    </edge>
    <edge id=":jn_1159_0" function="internal">
        <lane id=":jn_1159_0_0" index="0" speed="11.11" length="0.30" shape="88766.70,43313.55 88766.95,43313.71"/>
    </edge>
    <edge id=":jn_116_0" function="internal">
        <lane id=":jn_116_0_0" index="0" speed="9.72" length="0.10" shape="90916.50,43796.14 90916.46,43796.20"/>
    </edge>
    <edge id=":jn_1160_0" function="internal">
        <lane id=":jn_1160_0_0" index="0" speed="11.11" length="0.10" shape="88786.11,43326.14 88786.02,43326.09"/>
    </edge>
    <edge id=":jn_1161_0" function="internal">
        <lane id=":jn_1161_0_0" index="0" speed="13.89" length="0.28" shape="89645.39,43611.46 89645.54,43611.22"/>
    </edge>
    <edge id=":jn_1162_0" function="internal">
        <lane id=":jn_1162_0_0" index="0" speed="13.89" length="0.30" shape="89671.69,43570.10 89671.85,43569.85"/>
    </edge>
    <edge id=":jn_1165_0" function="internal">
        <lane id=":jn_1165_0_0" index="0" speed="16.67" length="0.17" shape="89252.66,43125.51 89252.64,43125.56 89252.62,43125.58 89252.60,43125.61 89252.57,43125.65"/>
    </edge>
    <edge id=":jn_1166_0" function="internal">
        <lane id=":jn_1166_0_0" index="0" speed="16.67" length="0.10" shape="89220.40,43169.28 89220.45,43169.20"/>
    </edge>
    <edge id=":jn_1169_0" function="internal">
        <lane id=":jn_1169_0_0" index="0" speed="13.89" length="0.30" shape="88746.32,42879.70 88746.16,42879.95"/>
    </edge>
    <edge id=":jn_117_0" function="internal">
        <lane id=":jn_117_0_0" index="0" speed="16.67" length="36.91" shape="90941.52,43766.39 90938.28,43772.77 90932.72,43782.59 90927.04,43792.35 90923.42,43798.55"/>
    </edge>
    <edge id=":jn_1170_0" function="internal">
        <lane id=":jn_1170_0_0" index="0" speed="13.89" length="0.10" shape="88730.88,42903.63 88730.88,42903.63"/>
    </edge>
    <edge id=":jn_1171_0" function="internal">
        <lane id=":jn_1171_0_0" index="0" speed="13.89" length="0.23" shape="88712.27,44173.36 88712.34,44173.38 88712.38,44173.39 88712.43,44173.41 88712.49,44173.43"/>
    </edge>
    <edge id=":jn_1172_0" function="internal">
        <lane id=":jn_1172_0_0" index="0" speed="13.89" length="0.30" shape="88790.93,44206.21 88791.20,44206.32"/>
    </edge>
    <edge id=":jn_1175_0" function="internal">
        <lane id=":jn_1175_0_0" index="0" speed="13.89" length="0.30" shape="88743.55,42877.96 88743.39,42878.21"/>
    </edge>
    <edge id=":jn_1176_0" function="internal">
        <lane id=":jn_1176_0_0" index="0" speed="13.89" length="0.30" shape="88728.24,42901.75 88728.08,42902.00"/>
    </edge>
    <edge id=":jn_1179_0" function="internal">
        <lane id=":jn_1179_0_0" index="0" speed="13.89" length="0.29" shape="88711.77,42927.30 88711.61,42927.55"/>
    </edge>
    <edge id=":jn_118_0" function="internal">
        <lane id=":jn_118_0_0" index="0" speed="9.72" length="0.10" shape="90922.56,43800.04 90922.52,43800.11"/>
    </edge>
    <edge id=":jn_1182_0" function="internal">
        <lane id=":jn_1182_0_0" index="0" speed="16.67" length="0.30" shape="89139.44,43305.07 89139.30,43305.33"/>
    </edge>
    <edge id=":jn_1185_0" function="internal">
        <lane id=":jn_1185_0_0" index="0" speed="4.11" length="1.43" shape="89133.86,42445.56 89134.22,42445.51 89134.55,42445.38 89134.83,42445.19 89135.08,42444.92"/>
    </edge>
    <edge id=":jn_1186_0" function="internal">
        <lane id=":jn_1186_0_0" index="0" speed="2.78" length="0.33" shape="89138.31,42440.59 89138.36,42440.51 89138.41,42440.46 89138.46,42440.41 89138.53,42440.35"/>
    </edge>
    <edge id=":jn_1187_0" function="internal">
        <lane id=":jn_1187_0_0" index="0" speed="16.67" length="0.19" shape="89145.46,43308.45 89145.44,43308.50 89145.42,43308.54 89145.41,43308.57 89145.38,43308.62"/>
    </edge>
    <edge id=":jn_119_0" function="internal">
        <lane id=":jn_119_0_0" index="0" speed="6.94" length="7.47" shape="86362.65,43016.25 86364.63,43014.98 86366.08,43013.65 86367.01,43012.28 86367.42,43010.84"/>
    </edge>
    <edge id=":jn_119_1" function="internal">
        <lane id=":jn_119_1_0" index="0" speed="8.33" length="8.05" shape="86366.66,43018.86 86367.42,43010.84"/>
    </edge>
    <edge id=":jn_1191_0" function="internal">
        <lane id=":jn_1191_0_0" index="0" speed="16.67" length="7.74" shape="89167.68,43306.20 89172.12,43299.86"/>
    </edge>
    <edge id=":jn_1191_1" function="internal">
        <lane id=":jn_1191_1_0" index="0" speed="8.67" length="7.33" shape="89167.68,43306.20 89168.66,43305.28 89170.10,43304.54 89172.00,43303.99 89174.36,43303.63"/>
    </edge>
    <edge id=":jn_1192_0" function="internal">
        <lane id=":jn_1192_0_0" index="0" speed="16.67" length="9.36" shape="89188.04,43295.39 89189.30,43297.89 89190.05,43299.73 89191.08,43301.30 89193.16,43303.02"/>
    </edge>
    <edge id=":jn_1192_1" function="internal">
        <lane id=":jn_1192_1_0" index="0" speed="16.67" length="9.28" shape="89185.32,43298.06 89193.16,43303.02"/>
    </edge>
    <edge id=":jn_1192_2" function="internal">
        <lane id=":jn_1192_2_0" index="0" speed="10.44" length="8.21" shape="89185.28,43302.50 89187.71,43302.10 89189.46,43301.78 89191.09,43301.95 89193.16,43303.02"/>
    </edge>
    <edge id=":jn_1195_0" function="internal">
        <lane id=":jn_1195_0_0" index="0" speed="7.52" length="4.04" shape="89140.91,43262.44 89141.93,43263.06 89142.70,43263.36 89143.53,43263.43 89144.71,43263.33"/>
    </edge>
    <edge id=":jn_1195_1" function="internal">
        <lane id=":jn_1195_1_0" index="0" speed="7.85" length="4.06" shape="89140.91,43262.44 89141.93,43263.06 89142.70,43263.39 89143.53,43263.48 89144.72,43263.42"/>
    </edge>
    <edge id=":jn_1196_0" function="internal">
        <lane id=":jn_1196_0_0" index="0" speed="8.18" length="7.59" shape="89194.89,43259.53 89197.31,43259.20 89199.25,43258.63 89200.71,43257.81 89201.70,43256.75"/>
    </edge>
    <edge id=":jn_1196_1" function="internal">
        <lane id=":jn_1196_1_0" index="0" speed="16.67" length="8.14" shape="89197.19,43263.53 89201.70,43256.75"/>
    </edge>
    <edge id=":jn_1199_0" function="internal">
        <lane id=":jn_1199_0_0" index="0" speed="16.67" length="8.49" shape="89137.40,43268.06 89144.57,43272.59"/>
    </edge>
    <edge id=":jn_1199_1" function="internal">
        <lane id=":jn_1199_1_0" index="0" speed="7.34" length="7.64" shape="89137.40,43268.06 89138.64,43269.19 89139.44,43270.71 89139.81,43272.62 89139.75,43274.91"/>
    </edge>
    <edge id=":jn_1202_0" function="internal">
        <lane id=":jn_1202_0_0" index="0" speed="16.67" length="0.27" shape="89163.10,43300.59 89163.25,43300.38"/>
    </edge>
    <edge id=":jn_1203_0" function="internal">
        <lane id=":jn_1203_0_0" index="0" speed="7.70" length="8.23" shape="89188.76,43256.13 89191.31,43255.68 89193.31,43254.91 89194.76,43253.82 89195.67,43252.41"/>
    </edge>
    <edge id=":jn_1203_1" function="internal">
        <lane id=":jn_1203_1_0" index="0" speed="16.67" length="9.14" shape="89191.25,43260.37 89192.80,43258.14 89193.80,43256.57 89194.63,43254.91 89195.67,43252.41"/>
    </edge>
    <edge id=":jn_1206_0" function="internal">
        <lane id=":jn_1206_0_0" index="0" speed="16.67" length="0.26" shape="89165.89,43302.73 89166.04,43302.52"/>
    </edge>
    <edge id=":jn_1207_0" function="internal">
        <lane id=":jn_1207_0_0" index="0" speed="8.30" length="7.68" shape="89191.95,43257.96 89194.40,43257.54 89196.36,43256.90 89197.82,43256.05 89198.78,43254.98"/>
    </edge>
    <edge id=":jn_1207_1" function="internal">
        <lane id=":jn_1207_1_0" index="0" speed="16.67" length="8.22" shape="89194.28,43261.85 89198.78,43254.98"/>
    </edge>
    <edge id=":jn_121_0" function="internal">
        <lane id=":jn_121_0_0" index="0" speed="6.94" length="11.97" shape="86373.59,43022.20 86372.06,43019.26 86370.99,43016.74 86370.44,43014.12 86370.49,43010.88"/>
    </edge>
    <edge id=":jn_121_1" function="internal">
        <lane id=":jn_121_1_0" index="0" speed="6.94" length="7.53" shape="86365.61,43016.20 86367.63,43015.04 86369.11,43013.76 86370.07,43012.38 86370.49,43010.88"/>
    </edge>
    <edge id=":jn_121_2" function="internal">
        <lane id=":jn_121_2_0" index="0" speed="8.33" length="12.21" shape="86369.34,43023.03 86370.49,43010.88"/>
    </edge>
    <edge id=":jn_1212_0" function="internal">
        <lane id=":jn_1212_0_0" index="0" speed="3.98" length="1.84" shape="89169.72,43259.79 89169.51,43260.22 89169.43,43260.65 89169.50,43261.08 89169.71,43261.52"/>
    </edge>
    <edge id=":jn_1213_0" function="internal">
        <lane id=":jn_1213_0_0" index="0" speed="16.67" length="10.46" shape="89189.35,43292.39 89190.86,43295.08 89191.87,43297.07 89193.16,43298.80 89195.50,43300.67"/>
    </edge>
    <edge id=":jn_1213_1" function="internal">
        <lane id=":jn_1213_1_0" index="0" speed="16.67" length="10.44" shape="89186.69,43295.08 89195.50,43300.67"/>
    </edge>
    <edge id=":jn_1216_0" function="internal">
        <lane id=":jn_1216_0_0" index="0" speed="13.89" length="0.41" shape="88618.72,44152.74 88618.84,44152.74 88618.93,44152.74 88619.01,44152.76 88619.13,44152.79"/>
    </edge>
    <edge id=":jn_1218_0" function="internal">
        <lane id=":jn_1218_0_0" index="0" speed="13.89" length="3.03" shape="87542.21,45141.70 87541.82,45138.69"/>
    </edge>
    <edge id=":jn_1218_1" function="internal">
        <lane id=":jn_1218_1_0" index="0" speed="13.89" length="3.04" shape="87542.21,45141.70 87542.11,45140.80 87542.05,45140.19 87542.02,45139.57 87541.99,45138.67"/>
    </edge>
    <edge id=":jn_1221_0" function="internal">
        <lane id=":jn_1221_0_0" index="0" speed="16.67" length="0.19" shape="89163.04,43257.81 89162.94,43257.97"/>
    </edge>
    <edge id=":jn_1222_0" function="internal">
        <lane id=":jn_1222_0_0" index="0" speed="16.67" length="10.92" shape="89141.09,43295.33 89135.60,43304.76"/>
    </edge>
    <edge id=":jn_1222_1" function="internal">
        <lane id=":jn_1222_1_0" index="0" speed="16.67" length="10.94" shape="89137.54,43294.14 89137.34,43297.29 89137.28,43299.69 89136.86,43301.97 89135.60,43304.76"/>
    </edge>
    <edge id=":jn_1224_0" function="internal">
        <lane id=":jn_1224_0_0" index="0" speed="13.89" length="0.13" shape="87545.48,45140.15 87545.47,45140.02"/>
    </edge>
    <edge id=":jn_1225_0" function="internal">
        <lane id=":jn_1225_0_0" index="0" speed="4.35" length="1.10" shape="89144.11,43260.35 89144.39,43260.52 89144.60,43260.61 89144.83,43260.63 89145.15,43260.60"/>
    </edge>
    <edge id=":jn_1226_0" function="internal">