<?xml version="1.0" encoding="UTF-8"?>
<net version="1.16" junctionCornerDetail="5" limitTurnSpeed="5.50">
    <location netOffset="0.00,0.00" convBoundary="85982.9216,41753.7793,90993.7763,45261.4774" origBoundary="85982.9216,41753.7793,90993.7763,45261.4774" projParameter="!"/>
    <edge id="ll_2236740" from="jn_0" to="jn_1" priority="-1">
        <lane id="ll_2236740_0" index="0" speed="16.6667" length="67.1313" shape="90553.1410,44080.3169 90552.2015,44079.7189 90550.1031,44078.3611 90548.0035,44077.0049 90545.9039,44075.6487 90544.5599,44074.7793 90543.6813,44074.2123 90541.5817,44072.8545 90539.3092,44071.4527 90537.2096,44070.0965 90534.9384,44068.6946 90532.8400,44067.3368 90530.5688,44065.9334 90528.9231,44064.8705 90528.3259,44064.4865 90527.7288,44064.1040 90525.4576,44062.7021 90524.8605,44062.3197 90524.2633,44061.9372 90523.6650,44061.5563 90521.3937,44060.1545 90520.1957,44059.3927 90519.5961,44059.0133 90518.5414,44058.3437 90516.2702,44056.9419 90514.1595,44055.6027 90511.8870,44054.2009 90509.7762,44052.8618 90507.5050,44051.4614 90505.3942,44050.1207 90503.1230,44048.7189 90501.0136,44047.3798 90498.7423,44045.9779 90496.9118,44044.8171 90496.3756,44044.4847"/>
    </edge>
    <edge id="ll_2236735" from="jn_2" to="jn_0" priority="-1">
        <lane id="ll_2236735_0" index="0" speed="16.6667" length="37.8308" shape="90584.9138,44100.8513 90582.8143,44099.4950 90579.4912,44097.3576 90577.3916,44095.9998 90575.2933,44094.6436 90573.1950,44093.2873 90571.0954,44091.9311 90568.9958,44090.5734 90566.8961,44089.2156 90564.7965,44087.8593 90562.6970,44086.5031 90560.5974,44085.1469 90558.4990,44083.7891 90555.2406,44081.6731 90553.1410,44080.3169"/>
    </edge>
    <edge id="ll_2236720" from="jn_3" to="jn_4" priority="-1">
        <lane id="ll_2236720_0" index="0" speed="8.3333" length="6.6713" shape="89438.9290,43212.0602 89439.0497,43211.7600 89439.1342,43211.5691 89439.2106,43211.3633 89439.3045,43211.1287 89439.3981,43210.8760 89439.4635,43210.6840 89439.5240,43210.4905 89439.6112,43210.2355 89439.6667,43210.0407 89439.7474,43209.7834 89439.8215,43209.5241 89439.8720,43209.3279 89439.9174,43209.1306 89439.9850,43208.8695 89440.0254,43208.6711 89440.0863,43208.4083 89440.1216,43208.2091 89440.1758,43207.9447 89440.2233,43207.6789 89440.2535,43207.4789 89440.2787,43207.2783 89440.3194,43207.0113 89440.3394,43206.8102 89440.3733,43206.5422 89440.3990,43206.2903 89440.4152,43206.0718 89440.4327,43205.8035 89440.4452,43205.6006"/>
    </edge>
    <edge id="ll_2236141" from="jn_5" to="jn_6" priority="-1">
        <lane id="ll_2236141_0" index="0" speed="8.3333" length="14.4797" shape="89448.7284,43206.9021 89447.3189,43204.9662 89441.7294,43201.2303 89438.7560,43197.1377 89438.5041,43196.9689"/>
    </edge>
    <edge id="ll_2236135" from="jn_5" to="jn_7" priority="-1">
        <lane id="ll_2236135_0" index="0" speed="8.3333" length="25.9932" shape="89448.7284,43206.9021 89445.2866,43204.0447 89438.2430,43192.3428 89432.1269,43187.4032"/>
    </edge>
    <edge id="ll_2233253" from="jn_8" to="jn_9" priority="-1">
        <lane id="ll_2233253_0" index="0" speed="13.8889" length="21.8008" shape="90672.9193,43996.4232 90672.7986,43996.1828 90672.7444,43996.0443 90672.6460,43995.9274 90671.5101,43994.5677 90670.6824,43993.5140 90669.1558,43992.1149 90667.9577,43991.1616 90667.1044,43990.6265 90665.0508,43989.4906 90659.3426,43987.1925 90654.7266,43985.2468"/>
    </edge>
    <edge id="ll_2233181" from="jn_10" to="jn_11" priority="-1">
        <lane id="ll_2233181_0" index="0" speed="2.7778" length="15.4972" shape="90680.8807,44008.1464 90681.1579,44006.5513 90681.0317,44005.3125 90679.7592,44002.2345 90678.4456,43998.3717 90676.9922,43996.4418 90675.2204,43994.2655"/>
    </edge>
    <edge id="ll_2233179" from="jn_11" to="jn_12" priority="-1">
        <lane id="ll_2233179_0" index="0" speed="2.7778" length="13.2226" shape="90675.2204,43994.2655 90674.5704,43993.5190 90673.9453,43992.8318 90672.2287,43991.0912 90671.5676,43990.3986 90669.6623,43989.3599 90668.4485,43988.6327 90667.3695,43988.1763 90665.4710,43987.3958 90664.4419,43987.0293"/>
    </edge>
    <edge id="ll_2233176" from="jn_13" to="jn_8" priority="-1">
        <lane id="ll_2233176_0" index="0" speed="8.3333" length="10.9153" shape="90677.5448,44006.1654 90677.4187,44004.9266 90676.1462,44001.8486 90674.8737,43999.5189 90673.4203,43997.5891 90672.9193,43996.4232"/>
    </edge>
    <edge id="ll_2232900" from="jn_12" to="jn_14" priority="-1">
        <lane id="ll_2232900_0" index="0" speed="2.7778" length="29.5348" shape="90664.4419,43987.0293 90661.0767,43985.7899 90655.8877,43983.9089 90652.3413,43982.8308 90646.6985,43980.8884 90642.7757,43979.8897 90640.9747,43980.3042 90637.2013,43981.4839 90636.4974,43982.0531"/>
    </edge>
    <edge id="ll_2232895" from="jn_14" to="jn_15" priority="-1">
        <lane id="ll_2232895_0" index="0" speed="2.7778" length="5.8983" shape="90636.4974,43982.0531 90635.7289,43982.6745 90634.5829,43983.6300 90633.7575,43985.0020 90632.6891,43986.4714"/>
    </edge>
    <edge id="ll_2232893" from="jn_13" to="jn_16" priority="-1">
        <lane id="ll_2232893_0" index="0" speed="8.3333" length="19.6838" shape="90677.5448,44006.1654 90678.4270,44005.2133 90678.8494,44004.8005 90679.0391,44004.6428 90680.0809,44003.8031 90680.5164,44003.4206 90680.7437,44003.2568 90681.5362,44002.7813 90681.7960,44002.6152 90682.4336,44002.3779 90683.1646,44001.9711 90683.8049,44001.7767 90684.3640,44001.4808 90684.9807,44001.3280 90685.6746,44001.1733 90686.2673,44000.9556 90686.9582,44000.8549 90687.4548,44000.6765 90688.4564,44000.6300 90689.3265,44000.3717 90689.9051,44000.3802 90690.2685,44000.3276 90691.1825,44000.4295 90691.6670,44000.3861 90692.4609,44000.3680 90694.4575,44000.7235 90695.4634,44000.8304"/>
    </edge>
    <edge id="ll_2232699" from="jn_17" to="jn_8" priority="-1">
        <lane id="ll_2232699_0" index="0" speed="4.1667" length="20.7704" shape="90664.7135,44011.7423 90667.8041,44011.1529 90668.9056,44010.7532 90670.3888,44009.5602 90671.8381,44008.1732 90673.3542,44005.9101 90673.7944,44004.4670 90674.2574,44001.5648 90674.2021,43999.9386 90673.6800,43998.4160 90673.3257,43997.3843 90672.9193,43996.4232"/>
    </edge>
    <edge id="ll_2232641" from="jn_17" to="jn_13" priority="-1">
        <lane id="ll_2232641_0" index="0" speed="4.1667" length="14.1339" shape="90664.7135,44011.7423 90667.2863,44011.3385 90668.2994,44010.8895 90670.1011,44010.1730 90671.3507,44009.6570 90673.1586,44008.7723 90673.9159,44008.1567 90675.2509,44007.3452 90677.5448,44006.1654"/>
    </edge>
    <edge id="ll_2232261" from="jn_8" to="jn_18" priority="-1">
        <lane id="ll_2232261_0" index="0" speed="8.3333" length="11.7944" shape="90672.9193,43996.4232 90672.6903,43996.0488 90672.0402,43995.3024 90671.2731,43994.2684 90670.6480,43993.5811 90669.9869,43992.8885 90668.7770,43991.9281 90667.5633,43991.2010 90666.6939,43990.6654 90665.6149,43990.2090 90664.7318,43989.8670 90663.7027,43989.5005"/>
    </edge>
    <edge id="ll_2232254" from="jn_19" to="jn_20" priority="-1">
        <lane id="ll_2232254_0" index="0" speed="8.3333" length="4.6052" shape="90638.6934,43985.2292 90638.0493,43985.6011 90637.2808,43986.2225 90636.5100,43986.9449 90635.4416,43988.4143"/>
    </edge>
    <edge id="ll_2232016" from="jn_21" to="jn_22" priority="-1">
        <lane id="ll_2232016_0" index="0" speed="2.7778" length="30.2540" shape="86368.0737,43077.0257 86368.2803,43074.8737 86368.4867,43072.7238 86368.6920,43070.5734 86368.8973,43068.4230 86369.1025,43066.2710 86369.3078,43064.1190 86369.5143,43061.9670 86369.7208,43059.8150 86369.9261,43057.6646 86370.1314,43055.5142 86370.3367,43053.3622 86370.5420,43051.2102 86370.7485,43049.0597 86370.9551,43046.9093"/>
    </edge>
    <edge id="ll_2232006" from="jn_23" to="jn_21" priority="-1">
        <lane id="ll_2232006_0" index="0" speed="2.7778" length="10.1642" shape="86367.0656,43087.1398 86367.1303,43086.4919 86367.1949,43085.8439 86367.4146,43083.6394 86367.6343,43081.4348 86367.8540,43079.2303 86368.0737,43077.0257"/>
    </edge>
    <edge id="ll_2232000" from="jn_24" to="jn_25" priority="-1">
        <lane id="ll_2232000_0" index="0" speed="2.7778" length="27.2166" shape="86360.0869,43159.5096 86360.3025,43157.2789 86360.5184,43155.0502 86360.7373,43152.7871 86360.9563,43150.5240 86361.1752,43148.2610 86361.3941,43145.9979 86361.6130,43143.7348 86361.8320,43141.4717 86362.0509,43139.2086 86362.2699,43136.9455 86362.4888,43134.6825 86362.7078,43132.4194"/>
    </edge>
    <edge id="ll_2231991" from="jn_26" to="jn_24" priority="-1">
        <lane id="ll_2231991_0" index="0" speed="2.7778" length="29.9300" shape="86356.9185,43189.2700 86357.0945,43187.7856 86357.2545,43186.2963 86357.4294,43184.8165 86357.5868,43183.3347 86357.8365,43181.1144 86358.0603,43178.8913 86358.3100,43176.6725 86358.5336,43174.4510 86358.7135,43172.9711 86358.8758,43171.4891 86359.0570,43170.0108 86359.2209,43168.5305 86359.4490,43166.2919 86359.6507,43164.0509 86359.8821,43161.7815 86360.0869,43159.5096"/>
    </edge>
    <edge id="ll_2231980" from="jn_27" to="jn_26" priority="-1">
        <lane id="ll_2231980_0" index="0" speed="2.7778" length="25.8837" shape="86354.1233,43215.0012 86354.2273,43213.9779 86354.3299,43212.9506 86354.5456,43210.7307 86354.7613,43208.5108 86354.9782,43206.2909 86355.1952,43204.0709 86355.3612,43202.5912 86355.5273,43201.1115 86355.6933,43199.6303 86355.8593,43198.1490 86356.1240,43195.9270 86356.3888,43193.7049 86356.6536,43191.4875 86356.9185,43189.2700"/>
    </edge>
    <edge id="ll_2231970" from="jn_28" to="jn_27" priority="-1">
        <lane id="ll_2231970_0" index="0" speed="2.7778" length="49.9115" shape="86349.5184,43264.6988 86349.5594,43264.2574 86349.6040,43263.8289 86349.7586,43262.3386 86349.9132,43260.8482 86350.0677,43259.3564 86350.2223,43257.8645 86350.4238,43255.6217 86350.6254,43253.3788 86350.8270,43251.1345 86351.0286,43248.8901 86351.1778,43247.3767 86351.3271,43245.8633 86351.4750,43244.3484 86351.6230,43242.8335 86351.8235,43240.6030 86352.0240,43238.3725 86352.2232,43236.1420 86352.4224,43233.9115 86352.5617,43232.4060 86352.7010,43230.9004 86352.8390,43229.3949 86352.9771,43227.8893 86353.1614,43225.6729 86353.3457,43223.4565 86353.5312,43221.2401 86353.7168,43219.0236 86353.8698,43217.5071 86354.0228,43215.9906 86354.0730,43215.4959 86354.1233,43215.0012"/>
    </edge>
    <edge id="ll_2231952" from="jn_29" to="jn_28" priority="-1">
        <lane id="ll_2231952_0" index="0" speed="2.7778" length="62.6586" shape="86346.5432,43327.1775 86346.3625,43325.4696 86346.1870,43323.7498 86346.1373,43323.0078 86346.0875,43322.2658 86345.9995,43320.9881 86345.9115,43319.7104 86345.8880,43318.6583 86345.8645,43317.6063 86345.8431,43316.5173 86345.8216,43315.4283 86345.8266,43314.1386 86345.8315,43312.8489 86345.8386,43311.6316 86345.8457,43310.4143 86345.8908,43309.4138 86345.9359,43308.4133 86346.0212,43306.9115 86346.1064,43305.4097 86346.1916,43303.9064 86346.2768,43302.4031 86346.4721,43300.1603 86346.6674,43297.9176 86346.8614,43295.6733 86347.0554,43293.4290 86347.1759,43291.9283 86347.2964,43290.4276 86347.4169,43288.9254 86347.5373,43287.4232 86347.7303,43285.1943 86347.9232,43282.9655 86348.1162,43280.7366 86348.3091,43278.5077 86348.4368,43276.9823 86348.5645,43275.4569 86348.6923,43273.9314 86348.8200,43272.4060 86349.0235,43270.2155 86349.2270,43268.0251 86349.3895,43266.2760 86349.5184,43264.6988"/>
    </edge>
    <edge id="ll_2231929" from="jn_30" to="jn_29" priority="-1">
        <lane id="ll_2231929_0" index="0" speed="2.7778" length="49.5795" shape="86351.4788,43376.5103 86351.2991,43374.7245 86351.1190,43372.9351 86351.0672,43372.4258 86351.0155,43371.9165 86350.8936,43370.7455 86350.7717,43369.5746 86350.7128,43369.0006 86350.6539,43368.4267 86350.5001,43366.9233 86350.3464,43365.4199 86350.1938,43363.9165 86350.0413,43362.4132 86349.8228,43360.1803 86349.6044,43357.9475 86349.3859,43355.7146 86349.1675,43353.4818 86349.0097,43351.9615 86348.8520,43350.4413 86348.6929,43348.9210 86348.5339,43347.4008 86348.3169,43345.1849 86348.1000,43342.9690 86347.8830,43340.7546 86347.6661,43338.5402 86347.5275,43337.0490 86347.3890,43335.5578 86347.2517,43334.0665 86347.1144,43332.5753 86346.8812,43330.3719 86346.6481,43328.1685 86346.5956,43327.6730 86346.5432,43327.1775"/>
    </edge>
    <edge id="ll_2231872" from="jn_31" to="jn_32" priority="-1">
        <lane id="ll_2231872_0" index="0" speed="2.7778" length="75.4822" shape="86365.5562,43518.2379 86365.4080,43516.6836 86365.1079,43513.6080 86364.9422,43511.8614 86364.9174,43511.5890 86364.7765,43510.1147 86364.6357,43508.6405 86364.4948,43507.1662 86364.2812,43504.9164 86364.0676,43502.6665 86363.8527,43500.4167 86363.6378,43498.1668 86363.4997,43496.7095 86363.4127,43495.8000 86363.2746,43494.3427 86363.2223,43493.7949 86363.1352,43492.8854 86362.9203,43490.6325 86362.8680,43490.0846 86362.6531,43487.8317 86362.4394,43485.5788 86362.2257,43483.3258 86362.0748,43481.7469 86361.9238,43480.1680 86361.7741,43478.5876 86361.6243,43477.0071 86361.4167,43474.8327 86361.2091,43472.6582 86361.0028,43470.4900 86360.7965,43468.3217 86360.5923,43466.2150 86360.3880,43464.1083 86360.1851,43462.0078 86359.9821,43459.9072 86359.7792,43457.8067 86359.5763,43455.7061 86359.3734,43453.6056 86359.1705,43451.5050 86358.9663,43449.4045 86358.7621,43447.3040 86358.5592,43445.2019 86358.3563,43443.0998"/>
    </edge>
    <edge id="ll_2231848" from="jn_33" to="jn_34" priority="-1">
        <lane id="ll_2231848_0" index="0" speed="2.7778" length="30.1956" shape="86374.4533,43612.3276 86374.2498,43610.1793 86374.0517,43608.0394 86373.8482,43605.8927 86373.6447,43603.7459 86373.4412,43601.5976 86373.2376,43599.4493 86373.0341,43597.3010 86372.8306,43595.1527 86372.6284,43593.0059 86372.4261,43590.8591 86372.2226,43588.7108 86372.0191,43586.5625 86371.8156,43584.4142 86371.6120,43582.2659"/>
    </edge>
    <edge id="ll_2231838" from="jn_35" to="jn_33" priority="-1">
        <lane id="ll_2231838_0" index="0" speed="2.7778" length="36.5358" shape="86377.8783,43648.7025 86377.7750,43647.6037 86377.6694,43646.5067 86377.4585,43644.2707 86377.2475,43642.0347 86377.1063,43640.5296 86376.9651,43639.0246 86376.8239,43637.5210 86376.6827,43636.0175 86376.4746,43633.8061 86376.2665,43631.5947 86376.0571,43629.3817 86375.8477,43627.1688 86375.7108,43625.7053 86375.5739,43624.2418 86375.4357,43622.7767 86375.2975,43621.3117 86375.0865,43619.0649 86374.8754,43616.8181 86374.6644,43614.5728 86374.4533,43612.3276"/>
    </edge>
    <edge id="ll_2231825" from="jn_36" to="jn_35" priority="-1">
        <lane id="ll_2231825_0" index="0" speed="2.7778" length="49.7849" shape="86382.5952,43698.2630 86382.4600,43696.9411 86382.3236,43695.6203 86382.1188,43693.4674 86381.9139,43691.3145 86381.7079,43689.1631 86381.5018,43687.0118 86381.3693,43685.4989 86381.2367,43683.9861 86381.1042,43682.4747 86380.9717,43680.9634 86380.7456,43678.7168 86380.5194,43676.4702 86380.2933,43674.2251 86380.0672,43671.9800 86379.9271,43670.4657 86379.7870,43668.9514 86379.6457,43667.4386 86379.5044,43665.9259 86379.2950,43663.7114 86379.0856,43661.4969 86378.8749,43659.2809 86378.6642,43657.0649 86378.5215,43655.5429 86378.3788,43654.0210 86378.2349,43652.4990 86378.0909,43650.9770 86377.9846,43649.8397 86377.8783,43648.7025"/>
    </edge>
    <edge id="ll_2231808" from="jn_37" to="jn_36" priority="-1">
        <lane id="ll_2231808_0" index="0" speed="2.7778" length="49.8863" shape="86387.3112,43747.9256 86387.2470,43747.2941 86387.1798,43746.6581 86387.0423,43745.1453 86386.9047,43743.6325 86386.7672,43742.1197 86386.6296,43740.6069 86386.4191,43738.4047 86386.2086,43736.2026 86385.9982,43734.0020 86385.7877,43731.8014 86385.6443,43730.3195 86385.5008,43728.8376 86385.3587,43727.3572 86385.2165,43725.8768 86385.0039,43723.6084 86384.7913,43721.3401 86384.5787,43719.0717 86384.3661,43716.8034 86384.2310,43715.2843 86384.0959,43713.7653 86383.9595,43712.2448 86383.8231,43710.7243 86383.6060,43708.4929 86383.3888,43706.2616 86383.1716,43704.0287 86382.9544,43701.7959 86382.7976,43700.2525 86382.6408,43698.7092 86382.6180,43698.4861 86382.5952,43698.2630"/>
    </edge>
    <edge id="ll_2231790" from="jn_38" to="jn_37" priority="-1">
        <lane id="ll_2231790_0" index="0" speed="2.7778" length="30.7552" shape="86390.0716,43778.5557 86389.9902,43777.5863 86389.9171,43776.6079 86389.7758,43775.0951 86389.6345,43773.5824 86389.4919,43772.0711 86389.3493,43770.5599 86389.1600,43768.3359 86388.9706,43766.1120 86388.7800,43763.8880 86388.5893,43761.6641 86388.4643,43760.1480 86388.3393,43758.6320 86388.2143,43757.1175 86388.0893,43755.6030 86387.8633,43753.3687 86387.6373,43751.1344 86387.4743,43749.5300 86387.3112,43747.9256"/>
    </edge>
    <edge id="ll_2231778" from="jn_39" to="jn_40" priority="-1">
        <lane id="ll_2231778_0" index="0" speed="2.7778" length="29.9270" shape="86547.8041,44492.9939 86547.2752,44491.1384 86546.7597,44489.2824 86546.2213,44487.3258 86545.6828,44485.3692 86545.1402,44483.5028 86544.5976,44481.6363 86544.3270,44480.5501 86544.0564,44479.4639 86543.4053,44477.0342 86542.7541,44474.6044 86542.0661,44472.2967 86541.3781,44469.9890 86540.7656,44467.6153 86540.1531,44465.2416 86540.0333,44464.6862 86539.9135,44464.1307"/>
    </edge>
    <edge id="ll_2231767" from="jn_41" to="jn_39" priority="-1">
        <lane id="ll_2231767_0" index="0" speed="2.7778" length="25.8840" shape="86554.3211,44518.0410 86554.2719,44517.8321 86553.7601,44515.5706 86553.2495,44513.3091 86552.6432,44511.0631 86549.3030,44498.5591 86547.8041,44492.9939"/>
    </edge>
    <edge id="ll_2231765" from="jn_42" to="jn_41" priority="-1">
        <lane id="ll_2231765_0" index="0" speed="2.7778" length="76.8128" shape="86573.9366,44592.3000 86573.9032,44592.1536 86573.8609,44592.0011 86573.2127,44589.6011 86572.5646,44587.2012 86571.9165,44584.8028 86571.2684,44582.4044 86570.6558,44580.1318 86570.0433,44577.8593 86569.4307,44575.5868 86568.8182,44573.3143 86568.4129,44571.8110 86568.0076,44570.3078 86567.9442,44570.0698 86567.8808,44569.8318 86567.3224,44567.7635 86566.7640,44565.6952 86566.3824,44564.2795 86566.0009,44562.8638 86565.6193,44561.4465 86565.2378,44560.0293 86564.6490,44557.8443 86564.0602,44555.6593 86563.4726,44553.4743 86562.8851,44551.2893 86562.6699,44550.4908 86562.4547,44549.6924 86561.8342,44547.3891 86561.2137,44545.0859 86560.7412,44543.3416 86560.2687,44541.5974 86559.7949,44539.8531 86559.3212,44538.1088 86558.8487,44536.3661 86558.3762,44534.6234 86557.8091,44532.4689 86557.2421,44530.3145 86556.6763,44528.1600 86556.1105,44526.0055 86555.7582,44524.4199 86555.4060,44522.8344 86555.0537,44521.2488 86554.7015,44519.6632 86554.5113,44518.8521 86554.3211,44518.0410"/>
    </edge>
    <edge id="ll_2231740" from="jn_43" to="jn_42" priority="-1">
        <lane id="ll_2231740_0" index="0" speed="2.7778" length="64.4199" shape="86590.8152,44654.4691 86590.6342,44653.7888 86590.4533,44653.1086 86590.0688,44651.6636 86589.6844,44650.2187 86589.3028,44648.7952 86588.9212,44647.3718 86588.5383,44645.9468 86588.1554,44644.5219 86587.7737,44643.0985 86587.3921,44641.6751 86587.0092,44640.2501 86586.6263,44638.8252 86586.2447,44637.4018 86585.8631,44635.9784 86585.7218,44635.4501 86585.5805,44634.9219 86584.9748,44632.6970 86584.3691,44630.4722 86583.7622,44628.2458 86583.1553,44626.0195 86582.5496,44623.7946 86581.9440,44621.5698 86581.3383,44619.3434 86580.7326,44617.1171 86580.1269,44614.8922 86579.5213,44612.6674 86578.9144,44610.4425 86578.3075,44608.2177 86577.8297,44606.4535 86577.3519,44604.6893 86576.8728,44602.9266 86576.3938,44601.1639 86575.7583,44598.8716 86575.1229,44596.5794 86574.5297,44594.4397 86573.9366,44592.3000"/>
    </edge>
    <edge id="ll_2231719" from="jn_44" to="jn_45" priority="-1">
        <lane id="ll_2231719_0" index="0" speed="2.7778" length="29.2842" shape="86566.4769,44630.3523 86566.8031,44631.5419 86567.1316,44632.8614 86567.4144,44633.8771 86567.6877,44634.8951 86568.0272,44636.1898 86568.3541,44637.4878 86568.7158,44638.7762 86569.0656,44640.0675 86569.4283,44641.3569 86569.7794,44642.6497 86570.1410,44643.9375 86570.4907,44645.2288 86570.8302,44646.5241 86571.1571,44647.8220 86571.4946,44649.1166 86571.8203,44650.4145 86572.1832,44651.7026 86572.5342,44652.9939 86572.8733,44654.2904 86573.2002,44655.5899 86573.4904,44656.7242 86573.7700,44657.8610 86573.8808,44658.2575 86573.9878,44658.6552"/>
    </edge>
    <edge id="ll_2231704" from="jn_46" to="jn_44" priority="-1">
        <lane id="ll_2231704_0" index="0" speed="2.7778" length="35.0621" shape="86557.5232,44596.4555 86557.9664,44598.0283 86558.3747,44599.5981 86558.8828,44601.3846 86559.3524,44603.1819 86559.8276,44604.9769 86560.2647,44606.7816 86560.7644,44608.5709 86561.2256,44610.3704 86561.8717,44612.7312 86562.4673,44615.1053 86563.1373,44617.4605 86563.7570,44619.8294 86564.4030,44622.1903 86564.9986,44624.5644 86565.3796,44625.9799 86565.7303,44627.4034 86566.1275,44628.9381 86566.4769,44630.3523"/>
    </edge>
    <edge id="ll_2231692" from="jn_47" to="jn_48" priority="-1">
        <lane id="ll_2231692_0" index="0" speed="2.7778" length="24.7995" shape="86509.0232,44418.0383 86509.3718,44419.3052 86509.7243,44420.5710 86510.0705,44421.8293 86510.4167,44423.0875 86511.1413,44425.7211 86511.8659,44428.3547 86512.6243,44431.1112 86513.3828,44433.8677 86514.2426,44436.9927 86515.1024,44440.1177 86515.3542,44441.0330 86515.6060,44441.9482"/>
    </edge>
    <edge id="ll_2231683" from="jn_49" to="jn_47" priority="-1">
        <lane id="ll_2231683_0" index="0" speed="2.7778" length="17.3923" shape="86504.4079,44401.2695 86505.5180,44405.3039 86506.6297,44409.3390 86507.6863,44413.1792 86508.7428,44417.0193 86508.8830,44417.5287 86509.0231,44418.0381 86509.0232,44418.0383"/>
    </edge>
    <edge id="ll_2236763" from="jn_50" to="jn_51" priority="-1">
        <lane id="ll_2236763_0" index="0" speed="2.7778" length="83.1966" shape="89434.2494,43185.3313 89434.1376,43185.2384 89433.7672,43184.8826 89432.6517,43183.9978 89431.7289,43183.2483 89430.6884,43182.4584 89429.7309,43181.6666 89428.4754,43180.8081 89427.1648,43179.7459 89425.4817,43178.6695 89424.0185,43177.7236 89422.2904,43176.6048 89420.5498,43175.5077 89418.8309,43174.4444 89417.1119,43173.3811 89415.2551,43172.2016 89413.3983,43171.0220 89411.7268,43169.9451 89410.0553,43168.8682 89408.0200,43167.5515 89405.9846,43166.2348 89403.9493,43164.9181 89401.9139,43163.6014 89399.8786,43162.2832 89397.8432,43160.9649 89395.8079,43159.6482 89393.7725,43158.3315 89391.7372,43157.0148 89389.7018,43155.6981 89387.6664,43154.3799 89385.6310,43153.0616 89383.5957,43151.7449 89381.5603,43150.4282 89379.5250,43149.1115 89377.4896,43147.7948 89375.4542,43146.4766 89373.4188,43145.1584 89371.3835,43143.8417 89369.3481,43142.5250 89367.0655,43141.0453 89364.8738,43139.4936"/>
    </edge>
    <edge id="ll_2231676" from="jn_52" to="jn_49" priority="-1">
        <lane id="ll_2231676_0" index="0" speed="2.7778" length="17.2557" shape="86499.7631,44384.6508 86502.0523,44392.9710 86504.4079,44401.2695"/>
    </edge>
    <edge id="ll_2231672" from="jn_53" to="jn_52" priority="-1">
        <lane id="ll_2231672_0" index="0" speed="2.7778" length="45.8402" shape="86487.6035,44340.4527 86488.3048,44343.0013 86489.0052,44345.5516 86490.3382,44350.3965 86491.6713,44355.2414 86493.0487,44360.2476 86494.4261,44365.2538 86496.2168,44371.7620 86498.0075,44378.2702 86498.8853,44381.4605 86499.7631,44384.6508"/>
    </edge>
    <edge id="ll_2231656" from="jn_54" to="jn_55" priority="-1">
        <lane id="ll_2231656_0" index="0" speed="2.7778" length="45.2784" shape="86464.4902,44255.7477 86464.8754,44257.2512 86465.2605,44258.7547 86470.4831,44277.8324 86475.6360,44296.9382 86475.9190,44297.9718 86476.2019,44299.0054 86476.2633,44299.2286 86476.3247,44299.4517"/>
    </edge>
    <edge id="ll_2231624" from="jn_56" to="jn_57" priority="-1">
        <lane id="ll_2231624_0" index="0" speed="2.7778" length="30.3336" shape="86372.9770,43779.8199 86373.1634,43781.9734 86373.3482,43784.1312 86373.5330,43786.2905 86373.7178,43788.4498 86373.9026,43790.6091 86374.0874,43792.7685 86374.2709,43794.9278 86374.4544,43797.0872 86374.6392,43799.2465 86374.8240,43801.4058 86375.0088,43803.5651 86375.1936,43805.7245 86375.3784,43807.8838 86375.5632,43810.0431"/>
    </edge>
    <edge id="ll_2231614" from="jn_58" to="jn_56" priority="-1">
        <lane id="ll_2231614_0" index="0" speed="2.7778" length="30.5086" shape="86370.1315,43749.4443 86370.1501,43749.6233 86370.1662,43749.8018 86370.3131,43751.3577 86370.4600,43752.9135 86370.6069,43754.4693 86370.7538,43756.0251 86370.9647,43758.2627 86371.1757,43760.5003 86371.3866,43762.7379 86371.5976,43764.9754 86371.7375,43766.4790 86371.8775,43767.9825 86372.0187,43769.4876 86372.1599,43770.9926 86372.3642,43773.1995 86372.5685,43775.4063 86372.7727,43777.6131 86372.9770,43779.8199"/>
    </edge>
    <edge id="ll_2231602" from="jn_59" to="jn_58" priority="-1">
        <lane id="ll_2231602_0" index="0" speed="2.7778" length="50.0494" shape="86365.4303,43699.6164 86365.4882,43700.2553 86365.5471,43700.8950 86365.7515,43703.1157 86365.9559,43705.3364 86366.0967,43706.8122 86366.2376,43708.2880 86366.3797,43709.7653 86366.5219,43711.2426 86366.7292,43713.4941 86366.9366,43715.7455 86367.1427,43717.9970 86367.3488,43720.2485 86367.4920,43721.7166 86367.6353,43723.1846 86367.7773,43724.6527 86367.9193,43726.1208 86368.1365,43728.3568 86368.3538,43730.5927 86368.5710,43732.8287 86368.7882,43735.0646 86368.9287,43736.5188 86369.0693,43737.9730 86369.2099,43739.4273 86369.3505,43740.8815 86369.5538,43743.1115 86369.7571,43745.3414 86369.9443,43747.3929 86370.1315,43749.4443"/>
    </edge>
    <edge id="ll_2231568" from="jn_60" to="jn_61" priority="-1">
        <lane id="ll_2231568_0" index="0" speed="2.7778" length="66.7241" shape="86354.4579,43583.6508 86354.5653,43584.7726 86354.6727,43585.8945 86354.8136,43587.3672 86354.9544,43588.8399 86355.0952,43590.3126 86355.2360,43591.7854 86355.4409,43594.0415 86355.6458,43596.2976 86355.8520,43598.5522 86356.0581,43600.8068 86356.2043,43602.3071 86356.3505,43603.8075 86356.4967,43605.3079 86356.6429,43606.8083 86356.8626,43609.0395 86357.0822,43611.2708 86357.3019,43613.5021 86357.5216,43615.7334 86357.6613,43617.2200 86357.8010,43618.7066 86357.9408,43620.1932 86358.0805,43621.6798 86358.2892,43623.9359 86358.4978,43626.1920 86358.7078,43628.4496 86358.9177,43630.7072 86359.0628,43632.2199 86359.2079,43633.7326 86359.3543,43635.2468 86359.5007,43636.7611 86359.7177,43638.9770 86359.9346,43641.1929 86360.1503,43643.4088 86360.3660,43645.6248 86360.5048,43647.1376 86360.6436,43648.6504 86360.7086,43649.3627 86360.7735,43650.0751"/>
    </edge>
    <edge id="ll_2231546" from="jn_62" to="jn_38" priority="-1">
        <lane id="ll_2231546_0" index="0" speed="2.7778" length="30.0517" shape="86392.8009,43808.4829 86392.7135,43807.5426 86392.6260,43806.6023 86392.4790,43805.0403 86392.3320,43803.4783 86392.1863,43801.9163 86392.0406,43800.3543 86391.8324,43798.1321 86391.6242,43795.9099 86391.4172,43793.6861 86391.2102,43791.4624 86391.0720,43789.9958 86390.9337,43788.5293 86390.7968,43787.0611 86390.6598,43785.5930 86390.4727,43783.3489 86390.2856,43781.1049 86390.1786,43779.8303 86390.0716,43778.5557"/>
    </edge>
    <edge id="ll_2231534" from="jn_63" to="jn_64" priority="-1">
        <lane id="ll_2231534_0" index="0" speed="2.7778" length="13.2188" shape="86346.7363,43503.6009 86346.7870,43504.1272 86346.8377,43504.6535 86347.0333,43506.6710 86347.2289,43508.6884 86347.4245,43510.7059 86347.6200,43512.7233 86347.8156,43514.7407 86348.0111,43516.7581"/>
    </edge>
    <edge id="ll_2231527" from="jn_65" to="jn_66" priority="-1">
        <lane id="ll_2231527_0" index="0" speed="2.7778" length="16.5120" shape="86343.5489,43471.3111 86343.6136,43472.0422 86343.6789,43472.7714 86343.9031,43474.9657 86344.1273,43477.1599 86344.3528,43479.3557 86344.5784,43481.5515 86344.7239,43483.0997 86344.8695,43484.6478 86345.0150,43486.1960 86345.1606,43487.7441"/>
    </edge>
    <edge id="ll_2231519" from="jn_67" to="jn_65" priority="-1">
        <lane id="ll_2231519_0" index="0" speed="2.7778" length="23.5167" shape="86341.4210,43447.8911 86341.4578,43448.3143 86341.4947,43448.7375 86341.6273,43450.2566 86341.7599,43451.7756 86341.8937,43453.2947 86342.0276,43454.8137 86342.1602,43456.3343 86342.2928,43457.8548 86342.5059,43460.0662 86342.7191,43462.2775 86342.9322,43464.4889 86343.1454,43466.7002 86343.2779,43468.2177 86343.4105,43469.7352 86343.4797,43470.5232 86343.5489,43471.3111"/>
    </edge>
    <edge id="ll_2231508" from="jn_68" to="jn_69" priority="-1">
        <lane id="ll_2231508_0" index="0" speed="2.7778" length="30.2506" shape="86334.9834,43379.1963 86335.1917,43381.3215 86335.3972,43383.4222 86335.5143,43384.6132 86335.6314,43385.8043 86335.7254,43386.7660 86335.8195,43387.7278 86336.0319,43389.8852 86336.2444,43392.0427 86336.4556,43394.2001 86336.6668,43396.3576 86336.8923,43398.6504 86337.1178,43400.9433 86337.3172,43402.9653 86337.5166,43404.9873 86337.7278,43407.1447 86337.9390,43409.3022"/>
    </edge>
    <edge id="ll_2231497" from="jn_70" to="jn_68" priority="-1">
        <lane id="ll_2231497_0" index="0" speed="2.7778" length="51.0896" shape="86329.8995,43328.3604 86329.9689,43329.0747 86330.0377,43329.7918 86330.2580,43332.0770 86330.4784,43334.3622 86330.6272,43335.8672 86330.7760,43337.3721 86330.9260,43338.8771 86331.0760,43340.3820 86331.2970,43342.6148 86331.5180,43344.8476 86331.7402,43347.0820 86331.9625,43349.3163 86332.1099,43350.8136 86332.2573,43352.3109 86332.4047,43353.8082 86332.5521,43355.3054 86332.7754,43357.5213 86332.9987,43359.7371 86333.2219,43361.9530 86333.4452,43364.1688 86333.5981,43365.7030 86333.7510,43367.2371 86333.9052,43368.7713 86334.0594,43370.3055 86334.2874,43372.5028 86334.5155,43374.7000 86334.7478,43376.9358 86334.9834,43379.1963"/>
    </edge>